/*--------------------------------*- C++ -*----------------------------------*\
  =========                 |
  \\      /  F ield         | OpenFOAM: The Open Source CFD Toolbox
   \\    /   O peration     | Website:  https://openfoam.org
    \\  /    A nd           | Version:  11
     \\/     M anipulation  |
\*---------------------------------------------------------------------------*/
FoamFile
{
    format      ascii;
    class       featureEdgeMesh;
    location    "constant/triSurface";
    object      fin.eMesh;
}
// * * * * * * * * * * * * * * * * * * * * * * * * * * * * * * * * * * * * * //


// points:
8((0.58 0.001 0.176) (0.5 0.001 6.1269e-18) (0.58 -0.001 0.176) (0.5 -0.001 6.1269e-18) (0.716 0.001 0.176) (0.716 -0.001 0.176) (0.716 0.001 5.55112e-17) (0.716 -0.001 5.55112e-17))

// edges:

12
(
(2 0)
(0 1)
(1 3)
(3 2)
(5 4)
(4 0)
(2 5)
(7 6)
(6 4)
(5 7)
(1 6)
(7 3)
)

// * * * * * * * * * * * * * * * * * * * * * * * * * * * * * * * * * * * * * //


// ************************************************************************* //
