FoamFile
{
    version     2.0;
    format      ascii;
    class       dictionary;
    location    "system";
    object      sampleDict;
}

interpolationScheme cellPoint;
setFormat raw;

sets
(
    probePoints
    {
        type points;
        axis xyz;
        points
        (
            (0.08 0.0010099998908117414 0.17599999804632568)
            (0.08 -0.0009900000877678394 0.17599999804632568)
            (0.099428571428571 0.0010099998908117414 0.17599999804632568)
            (0.099428571428571 -0.0009900000877678394 0.17599999804632568)
            (0.118857142857143 0.0010099998908117414 0.17599999804632568)
            (0.118857142857143 -0.0009900000877678394 0.17599999804632568)
            (0.138285714285714 0.0010099998908117414 0.17599999804632568)
            (0.138285714285714 -0.0009900000877678394 0.17599999804632568)
            (0.157714285714286 0.0010099998908117414 0.17599999804632568)
            (0.157714285714286 -0.0009900000877678394 0.17599999804632568)
            (0.177142857142857 0.0010099998908117414 0.17599999804632568)
            (0.177142857142857 -0.0009900000877678394 0.17599999804632568)
            (0.196571428571429 0.0010099998908117414 0.17599999804632568)
            (0.196571428571429 -0.0009900000877678394 0.17599999804632568)
            (0.216 0.0010099998908117414 0.17599999804632568)
            (0.216 -0.0009900000877678394 0.17599999804632568)
            (0.216 0.0010099998908117414 0.146666666666667)
            (0.216 -0.0009900000877678394 0.146666666666667)
            (0.216 0.0010099998908117414 0.117333333333333)
            (0.216 -0.0009900000877678394 0.117333333333333)
            (0.216 0.0010099998908117414 0.088)
            (0.216 -0.0009900000877678394 0.088)
            (0.216 0.0010099998908117414 0.058666666666667)
            (0.216 -0.0009900000877678394 0.058666666666667)
            (0.216 0.0010099998908117414 0.029333333333333)
            (0.216 -0.0009900000877678394 0.029333333333333)
            (0.216 0.0010099998908117414 0.0)
            (0.216 -0.0009900000877678394 0.0)
            (0.185142857142857 0.0010099998908117414 0.0)
            (0.185142857142857 -0.0009900000877678394 0.0)
            (0.154285714285714 0.0010099998908117414 0.0)
            (0.154285714285714 -0.0009900000877678394 0.0)
            (0.123428571428571 0.0010099998908117414 0.0)
            (0.123428571428571 -0.0009900000877678394 0.0)
            (0.092571428571429 0.0010099998908117414 0.0)
            (0.092571428571429 -0.0009900000877678394 0.0)
            (0.061714285714286 0.0010099998908117414 0.0)
            (0.061714285714286 -0.0009900000877678394 0.0)
            (0.030857142857143 0.0010099998908117414 0.0)
            (0.030857142857143 -0.0009900000877678394 0.0)
            (0.0 0.0010099998908117414 0.0)
            (0.0 -0.0009900000877678394 0.0)
            (0.013333333333333 0.0010099998908117414 0.029333333333333)
            (0.013333333333333 -0.0009900000877678394 0.029333333333333)
            (0.026666666666667 0.0010099998908117414 0.058666666666667)
            (0.026666666666667 -0.0009900000877678394 0.058666666666667)
            (0.04 0.0010099998908117414 0.088)
            (0.04 -0.0009900000877678394 0.088)
            (0.053333333333333 0.0010099998908117414 0.117333333333333)
            (0.053333333333333 -0.0009900000877678394 0.117333333333333)
            (0.066666666666667 0.0010099998908117414 0.146666666666667)
            (0.066666666666667 -0.0009900000877678394 0.146666666666667)
            (0.088 0.0010099998908117414 0.146666666666667)
            (0.088 -0.0009900000877678394 0.146666666666667)
            (0.109333333333333 0.0010099998908117414 0.146666666666667)
            (0.109333333333333 -0.0009900000877678394 0.146666666666667)
            (0.130666666666667 0.0010099998908117414 0.146666666666667)
            (0.130666666666667 -0.0009900000877678394 0.146666666666667)
            (0.152 0.0010099998908117414 0.146666666666667)
            (0.152 -0.0009900000877678394 0.146666666666667)
            (0.173333333333333 0.0010099998908117414 0.146666666666667)
            (0.173333333333333 -0.0009900000877678394 0.146666666666667)
            (0.194666666666667 0.0010099998908117414 0.146666666666667)
            (0.194666666666667 -0.0009900000877678394 0.146666666666667)
            (0.076571428571429 0.0010099998908117414 0.117333333333333)
            (0.076571428571429 -0.0009900000877678394 0.117333333333333)
            (0.099809523809524 0.0010099998908117414 0.117333333333333)
            (0.099809523809524 -0.0009900000877678394 0.117333333333333)
            (0.123047619047619 0.0010099998908117414 0.117333333333333)
            (0.123047619047619 -0.0009900000877678394 0.117333333333333)
            (0.146285714285714 0.0010099998908117414 0.117333333333333)
            (0.146285714285714 -0.0009900000877678394 0.117333333333333)
            (0.16952380952381 0.0010099998908117414 0.117333333333333)
            (0.16952380952381 -0.0009900000877678394 0.117333333333333)
            (0.192761904761905 0.0010099998908117414 0.117333333333333)
            (0.192761904761905 -0.0009900000877678394 0.117333333333333)
            (0.065142857142857 0.0010099998908117414 0.088)
            (0.065142857142857 -0.0009900000877678394 0.088)
            (0.090285714285714 0.0010099998908117414 0.088)
            (0.090285714285714 -0.0009900000877678394 0.088)
            (0.115428571428571 0.0010099998908117414 0.088)
            (0.115428571428571 -0.0009900000877678394 0.088)
            (0.140571428571429 0.0010099998908117414 0.088)
            (0.140571428571429 -0.0009900000877678394 0.088)
            (0.165714285714286 0.0010099998908117414 0.088)
            (0.165714285714286 -0.0009900000877678394 0.088)
            (0.190857142857143 0.0010099998908117414 0.088)
            (0.190857142857143 -0.0009900000877678394 0.088)
            (0.053714285714286 0.0010099998908117414 0.058666666666667)
            (0.053714285714286 -0.0009900000877678394 0.058666666666667)
            (0.080761904761905 0.0010099998908117414 0.058666666666667)
            (0.080761904761905 -0.0009900000877678394 0.058666666666667)
            (0.107809523809524 0.0010099998908117414 0.058666666666667)
            (0.107809523809524 -0.0009900000877678394 0.058666666666667)
            (0.134857142857143 0.0010099998908117414 0.058666666666667)
            (0.134857142857143 -0.0009900000877678394 0.058666666666667)
            (0.161904761904762 0.0010099998908117414 0.058666666666667)
            (0.161904761904762 -0.0009900000877678394 0.058666666666667)
            (0.188952380952381 0.0010099998908117414 0.058666666666667)
            (0.188952380952381 -0.0009900000877678394 0.058666666666667)
            (0.042285714285714 0.0010099998908117414 0.029333333333333)
            (0.042285714285714 -0.0009900000877678394 0.029333333333333)
            (0.071238095238095 0.0010099998908117414 0.029333333333333)
            (0.071238095238095 -0.0009900000877678394 0.029333333333333)
            (0.100190476190476 0.0010099998908117414 0.029333333333333)
            (0.100190476190476 -0.0009900000877678394 0.029333333333333)
            (0.129142857142857 0.0010099998908117414 0.029333333333333)
            (0.129142857142857 -0.0009900000877678394 0.029333333333333)
            (0.158095238095238 0.0010099998908117414 0.029333333333333)
            (0.158095238095238 -0.0009900000877678394 0.029333333333333)
            (0.187047619047619 0.0010099998908117414 0.029333333333333)
            (0.187047619047619 -0.0009900000877678394 0.029333333333333)
        );
    }
);

fields
(
    p
    rho
    a
    U
);
