/*--------------------------------*- C++ -*----------------------------------*\
  =========                 |
  \\      /  F ield         | OpenFOAM: The Open Source CFD Toolbox
   \\    /   O peration     | Website:  https://openfoam.org
    \\  /    A nd           | Version: 11
     \\/     M anipulation  |
\*---------------------------------------------------------------------------*/
FoamFile
{
    version     2.0;
    format      ascii;
    class       dictionary;
    object      snappyHexMeshDict;
}

castellatedMesh true;
snap            true;
addLayers       false;

mergeTolerance 1e-6;

geometry
{
    fin.stl
    {
        type triSurfaceMesh;
        name fin;
    }
}

castellatedMeshControls
{
    maxLocalCells 100000;
    maxGlobalCells 2000000;
    minRefinementCells 0;
    nCellsBetweenLevels 3;

    features
    (
    );

    refinementSurfaces
    {
        fin
        {
            level (4 4);
        }
    }

    resolveFeatureAngle 30;

    refinementRegions
    {
    }

    locationInMesh (0 0 0.5);

    allowFreeStandingZoneFaces true;
}

snapControls
{
    nSmoothPatch 3;
    tolerance 2.0;
    nSolveIter 30;
    nRelaxIter 5;
}

addLayersControls
{
}

meshQualityControls
{
    #includeEtc "caseDicts/mesh/generation/meshQualityDict"
}
// ************************************************************************* //
