FoamFile
{
    version     11;
    format      ascii;
    class       dictionary;
    object      surfaceFeaturesDict;
}

includedAngle 150;

surfaces
(
    "fin.stl"
);
